<?xml version="1.0" encoding="UTF-8"?>

<!-- generated on 2024-09-29 19:01:22.226610 by osmWebWizard.py v1_20_0+0002-343658e7c64
<configuration>
    <net-file value="C:\Users\dercc\Sumo\2024-09-29-19-00-39\osm.net.xml.gz"/>
    <output-trip-file value="C:\Users\dercc\Sumo\2024-09-29-19-00-39\osm.passenger.trips.xml"/>
    <route-file value="C:\Users\dercc\Sumo\2024-09-29-19-00-39\osm.passenger.rou.xml"/>
    <prefix value="veh"/>
    <trip-attributes value="departLane=&quot;best&quot;"/>
    <fringe-start-attributes value="departSpeed=&quot;max&quot;"/>
    <vehicle-class value="passenger"/>
    <lanes value="True"/>
    <fringe-factor value="5"/>
    <allow-fringe.min-length value="1000.0"/>
    <via-edge-types value="highway.motorway,highway.motorway_link,highway.trunk_link,highway.primary_link,highway.secondary_link,highway.tertiary_link"/>
    <min-distance value="300.0"/>
    <min-distance.fringe value="10.0"/>
    <remove-loops value="True"/>
    <validate value="True"/>
    <insertion-density value="12.0"/>
</configuration>
-->

<!-- generated on 2024-09-29 19:01:21 by Eclipse SUMO duarouter Version 1.20.0
<configuration xmlns:xsi="http://www.w3.org/2001/XMLSchema-instance" xsi:noNamespaceSchemaLocation="http://sumo.dlr.de/xsd/duarouterConfiguration.xsd">

    <input>
        <net-file value="C:\Users\dercc\Sumo\2024-09-29-19-00-39\osm.net.xml.gz"/>
        <route-files value="C:\Users\dercc\Sumo\2024-09-29-19-00-39\osm.passenger.trips.xml"/>
    </input>

    <output>
        <output-file value="C:\Users\dercc\Sumo\2024-09-29-19-00-39\osm.passenger.trips.xml.tmp"/>
        <alternatives-output value="NUL"/>
        <write-trips value="true"/>
    </output>

    <processing>
        <remove-loops value="true"/>
    </processing>

    <time>
        <begin value="0.0"/>
        <end value="3600.0"/>
    </time>

    <report>
        <no-warnings value="true"/>
        <ignore-errors value="true"/>
        <no-step-log value="true"/>
    </report>

</configuration>
-->

<routes xmlns:xsi="http://www.w3.org/2001/XMLSchema-instance" xsi:noNamespaceSchemaLocation="http://sumo.dlr.de/xsd/routes_file.xsd">
    <vType id="veh_passenger" vClass="passenger"/>
    <trip id="veh1" type="veh_passenger" depart="2.33" departLane="best" departSpeed="max" from="-461526149" to="4402014#1"/>
    <trip id="veh2" type="veh_passenger" depart="4.66" departLane="best" departSpeed="max" from="327481193#0" to="-292429063#1"/>
    <trip id="veh3" type="veh_passenger" depart="6.99" departLane="best" from="465398529#1" to="1228446781#1"/>
    <trip id="veh4" type="veh_passenger" depart="9.32" departLane="best" from="1133457727" to="-1102369940#0"/>
    <trip id="veh5" type="veh_passenger" depart="11.65" departLane="best" from="-1102154066#1" to="-339201177#0"/>
    <trip id="veh6" type="veh_passenger" depart="13.98" departLane="best" departSpeed="max" from="287420296#0" to="176031315#3"/>
    <trip id="veh7" type="veh_passenger" depart="16.31" departLane="best" from="-437325047#1" to="-202817674#4"/>
    <trip id="veh9" type="veh_passenger" depart="20.97" departLane="best" from="-448076850#1" to="307098733#1"/>
    <trip id="veh10" type="veh_passenger" depart="23.29" departLane="best" from="1040930907#4" to="23386525#1"/>
    <trip id="veh11" type="veh_passenger" depart="25.62" departLane="best" from="738290009#2" to="-1144528535#0"/>
    <trip id="veh12" type="veh_passenger" depart="27.95" departLane="best" departSpeed="max" from="-1302053249" to="-147066248#5"/>
    <trip id="veh14" type="veh_passenger" depart="32.61" departLane="best" from="4484427#1" to="318282850#2"/>
    <trip id="veh15" type="veh_passenger" depart="34.94" departLane="best" from="-176031315#3" to="82639457#1"/>
    <trip id="veh16" type="veh_passenger" depart="37.27" departLane="best" departSpeed="max" from="1102369976" to="890801131#1"/>
    <trip id="veh17" type="veh_passenger" depart="39.60" departLane="best" from="4610355#13" to="24234486"/>
    <trip id="veh18" type="veh_passenger" depart="41.93" departLane="best" from="4612969#2" to="195430954#0"/>
    <trip id="veh19" type="veh_passenger" depart="44.26" departLane="best" from="312357351#3" to="-1121008013#2"/>
    <trip id="veh20" type="veh_passenger" depart="46.59" departLane="best" from="4412868#1" to="-54672676"/>
    <trip id="veh21" type="veh_passenger" depart="48.92" departLane="best" from="-1179820019#0" to="-4570580#7"/>
    <trip id="veh22" type="veh_passenger" depart="51.25" departLane="best" from="153692978#3" to="4615546#3"/>
    <trip id="veh23" type="veh_passenger" depart="53.58" departLane="best" from="25086768" to="1101404262#1"/>
    <trip id="veh24" type="veh_passenger" depart="55.91" departLane="best" from="-1102154066#1" to="4083446#1"/>
    <trip id="veh25" type="veh_passenger" depart="58.24" departLane="best" from="-4612976#1" to="681299268#1"/>
    <trip id="veh26" type="veh_passenger" depart="60.57" departLane="best" from="284493291#0" to="23755950#0"/>
    <trip id="veh27" type="veh_passenger" depart="62.90" departLane="best" departSpeed="max" from="-268002750#1" to="318124635"/>
    <trip id="veh28" type="veh_passenger" depart="65.22" departLane="best" from="-24993933#0" to="1105526087"/>
    <trip id="veh29" type="veh_passenger" depart="67.55" departLane="best" from="850240180#0" to="25086767#0"/>
    <trip id="veh31" type="veh_passenger" depart="72.21" departLane="best" from="4611710#0" to="478432725"/>
    <trip id="veh32" type="veh_passenger" depart="74.54" departLane="best" from="-448076850#1" to="328426236#1"/>
    <trip id="veh33" type="veh_passenger" depart="76.87" departLane="best" departSpeed="max" from="-73310501#1" to="4613300#1"/>
    <trip id="veh34" type="veh_passenger" depart="79.20" departLane="best" from="1073015940#1" to="713576589#3"/>
    <trip id="veh35" type="veh_passenger" depart="81.53" departLane="best" departSpeed="max" from="46138134#0" to="-874528353#1"/>
    <trip id="veh36" type="veh_passenger" depart="83.86" departLane="best" from="287764737#4" to="1119855803#1"/>
    <trip id="veh37" type="veh_passenger" depart="86.19" departLane="best" from="534588621#1" to="1155227488"/>
    <trip id="veh39" type="veh_passenger" depart="90.85" departLane="best" from="194962398#1" to="-4612970#0"/>
    <trip id="veh41" type="veh_passenger" depart="95.51" departLane="best" from="1119855803#0" to="437325050#1"/>
    <trip id="veh42" type="veh_passenger" depart="97.84" departLane="best" from="932637380#1" to="-153698387#2"/>
    <trip id="veh43" type="veh_passenger" depart="100.17" departLane="best" from="-1265918154#2" to="-112128825#4"/>
    <trip id="veh44" type="veh_passenger" depart="102.50" departLane="best" from="-168940071#4" to="246044841#0"/>
    <trip id="veh46" type="veh_passenger" depart="107.16" departLane="best" from="-1151333058#1" to="1105574291#1"/>
    <trip id="veh47" type="veh_passenger" depart="109.48" departLane="best" from="-930343901#4" to="-168940071#4"/>
    <trip id="veh49" type="veh_passenger" depart="114.14" departLane="best" from="1076055688#2" to="-312651888#4"/>
    <trip id="veh50" type="veh_passenger" depart="116.47" departLane="best" from="301241681#3" to="170311604#0"/>
    <trip id="veh51" type="veh_passenger" depart="118.80" departLane="best" from="-168943639#2" to="1136657263#0"/>
    <trip id="veh52" type="veh_passenger" depart="121.13" departLane="best" from="-1155226001#1" to="73310501#1"/>
    <trip id="veh53" type="veh_passenger" depart="123.46" departLane="best" departSpeed="max" from="46138134#0" to="-4612974#1"/>
    <trip id="veh54" type="veh_passenger" depart="125.79" departLane="best" from="153698394#4" to="29290632#1"/>
    <trip id="veh55" type="veh_passenger" depart="128.12" departLane="best" from="523630409" to="4613300#10"/>
    <trip id="veh56" type="veh_passenger" depart="130.45" departLane="best" from="534588621#1" to="-24993933#2"/>
    <trip id="veh57" type="veh_passenger" depart="132.78" departLane="best" from="23851930" to="-23386522#12"/>
    <trip id="veh58" type="veh_passenger" depart="135.11" departLane="best" departSpeed="max" from="36259518" to="171423001#2"/>
    <trip id="veh59" type="veh_passenger" depart="137.44" departLane="best" from="339201250#2" to="168942727#1"/>
    <trip id="veh60" type="veh_passenger" depart="139.77" departLane="best" from="-1009114665#1" to="1024034687#0"/>
    <trip id="veh61" type="veh_passenger" depart="142.10" departLane="best" from="-1100824590#0" to="6227658#0"/>
    <trip id="veh62" type="veh_passenger" depart="144.43" departLane="best" from="-4614987#6" to="4610355#5"/>
    <trip id="veh63" type="veh_passenger" depart="146.76" departLane="best" from="710893617#1" to="-114667396#0"/>
    <trip id="veh64" type="veh_passenger" depart="149.09" departLane="best" from="-4614987#2" to="713576590#5"/>
    <trip id="veh65" type="veh_passenger" depart="151.42" departLane="best" from="-1218225317#2" to="1228446781#1"/>
    <trip id="veh66" type="veh_passenger" depart="153.74" departLane="best" from="-1155226001#1" to="342968607#1"/>
    <trip id="veh67" type="veh_passenger" depart="156.07" departLane="best" from="369223458#2" to="1224613249"/>
    <trip id="veh70" type="veh_passenger" depart="163.06" departLane="best" from="1133457730" to="4296469#4"/>
    <trip id="veh71" type="veh_passenger" depart="165.39" departLane="best" from="176043807#14" to="1105526112#1"/>
    <trip id="veh72" type="veh_passenger" depart="167.72" departLane="best" from="-339201177#2" to="82658674#2"/>
    <trip id="veh73" type="veh_passenger" depart="170.05" departLane="best" from="-930343901#0" to="267542609#1"/>
    <trip id="veh74" type="veh_passenger" depart="172.38" departLane="best" from="1144041686" to="156364570#3"/>
    <trip id="veh75" type="veh_passenger" depart="174.71" departLane="best" from="-176043806#2" to="4402037#2"/>
    <trip id="veh76" type="veh_passenger" depart="177.04" departLane="best" from="-1024034687#8" to="202157002#2"/>
    <trip id="veh78" type="veh_passenger" depart="181.70" departLane="best" departSpeed="max" from="-1155226002#3" to="246052428"/>
    <trip id="veh80" type="veh_passenger" depart="186.36" departLane="best" from="4612966#1" to="-1158892054#0"/>
    <trip id="veh81" type="veh_passenger" depart="188.69" departLane="best" from="-4592739#0" to="-29054704#5"/>
    <trip id="veh82" type="veh_passenger" depart="191.02" departLane="best" from="4296467#3" to="189037368#3"/>
    <trip id="veh83" type="veh_passenger" depart="193.35" departLane="best" from="-62745347" to="195104960#2"/>
    <trip id="veh84" type="veh_passenger" depart="195.67" departLane="best" from="1207869773" to="42103020#0"/>
    <trip id="veh85" type="veh_passenger" depart="198.00" departLane="best" from="4484427#2" to="31912630#4"/>
    <trip id="veh86" type="veh_passenger" depart="200.33" departLane="best" from="-147066248#0" to="1133993557"/>
    <trip id="veh87" type="veh_passenger" depart="202.66" departLane="best" from="1133457733" to="1164203952#1"/>
    <trip id="veh88" type="veh_passenger" depart="204.99" departLane="best" from="48859715#4" to="291270698#3"/>
    <trip id="veh89" type="veh_passenger" depart="207.32" departLane="best" from="312533961#0" to="-153692976#4"/>
    <trip id="veh90" type="veh_passenger" depart="209.65" departLane="best" from="1120380858#0" to="1052675176#1"/>
    <trip id="veh91" type="veh_passenger" depart="211.98" departLane="best" from="-82658671#0" to="-4611708#1"/>
    <trip id="veh92" type="veh_passenger" depart="214.31" departLane="best" from="-31912630#7" to="1151064408#1"/>
    <trip id="veh93" type="veh_passenger" depart="216.64" departLane="best" from="1133457727" to="465376254#0"/>
    <trip id="veh94" type="veh_passenger" depart="218.97" departLane="best" departSpeed="max" from="4610524#1" to="60333314#1"/>
    <trip id="veh95" type="veh_passenger" depart="221.30" departLane="best" from="1151064388#3" to="82658674#2"/>
    <trip id="veh96" type="veh_passenger" depart="223.63" departLane="best" from="188283090#0" to="-1127596842#0"/>
    <trip id="veh97" type="veh_passenger" depart="225.96" departLane="best" from="980371139#4" to="4610476#5"/>
    <trip id="veh98" type="veh_passenger" depart="228.29" departLane="best" from="81112790#1" to="284493291#0"/>
    <trip id="veh100" type="veh_passenger" depart="232.95" departLane="best" from="1269093895" to="-43087099#2"/>
    <trip id="veh101" type="veh_passenger" depart="235.28" departLane="best" from="1119936840#1" to="114667396#3"/>
    <trip id="veh102" type="veh_passenger" depart="237.61" departLane="best" departSpeed="max" from="1102369976" to="840229277#1"/>
    <trip id="veh104" type="veh_passenger" depart="242.26" departLane="best" from="1155227488" to="1133761786"/>
    <trip id="veh105" type="veh_passenger" depart="244.59" departLane="best" from="19002363#3" to="-312651885#1"/>
    <trip id="veh106" type="veh_passenger" depart="246.92" departLane="best" departSpeed="max" from="-23813206" to="-681299268#1"/>
    <trip id="veh107" type="veh_passenger" depart="249.25" departLane="best" from="81112790#1" to="195430960#3"/>
    <trip id="veh109" type="veh_passenger" depart="253.91" departLane="best" from="-1144528529#1" to="-19801644#2"/>
    <trip id="veh110" type="veh_passenger" depart="256.24" departLane="best" from="154041912#1" to="4612410"/>
    <trip id="veh111" type="veh_passenger" depart="258.57" departLane="best" from="-24241762#0" to="753730627#1"/>
    <trip id="veh112" type="veh_passenger" depart="260.90" departLane="best" from="1179820253#0" to="-312651888#6"/>
    <trip id="veh113" type="veh_passenger" depart="263.23" departLane="best" from="233835641#2" to="292429062#0"/>
    <trip id="veh114" type="veh_passenger" depart="265.56" departLane="best" from="-4570580#6" to="176031315#3"/>
    <trip id="veh115" type="veh_passenger" depart="267.89" departLane="best" from="465376243" to="-4610612#1"/>
    <trip id="veh116" type="veh_passenger" depart="270.22" departLane="best" from="233835641#2" to="24240246#1"/>
    <trip id="veh117" type="veh_passenger" depart="272.55" departLane="best" from="-1132163645#1" to="19801618#1"/>
    <trip id="veh118" type="veh_passenger" depart="274.88" departLane="best" from="-35557161#2" to="312533962#2"/>
    <trip id="veh119" type="veh_passenger" depart="277.21" departLane="best" from="-4592739#3" to="1119935327#1"/>
    <trip id="veh121" type="veh_passenger" depart="281.87" departLane="best" from="-73310502#2" to="330840125#0"/>
    <trip id="veh122" type="veh_passenger" depart="284.19" departLane="best" from="-1157444126#1" to="1155226002#2"/>
    <trip id="veh123" type="veh_passenger" depart="286.52" departLane="best" from="932770786" to="950222545"/>
    <trip id="veh124" type="veh_passenger" depart="288.85" departLane="best" from="-1158892054#0" to="-43053691#0"/>
    <trip id="veh126" type="veh_passenger" depart="293.51" departLane="best" from="-4615403#1" to="4615497#4"/>
    <trip id="veh127" type="veh_passenger" depart="295.84" departLane="best" from="-1101961737" to="-23809670#0"/>
    <trip id="veh128" type="veh_passenger" depart="298.17" departLane="best" from="4610375#0" to="309300321#1"/>
    <trip id="veh130" type="veh_passenger" depart="302.83" departLane="best" from="287764737#3" to="1055414211#0"/>
    <trip id="veh131" type="veh_passenger" depart="305.16" departLane="best" from="4588222#2" to="-717177007#13"/>
    <trip id="veh133" type="veh_passenger" depart="309.82" departLane="best" from="-195397541#2" to="-171484594#1"/>
    <trip id="veh134" type="veh_passenger" depart="312.15" departLane="best" from="-15973619#8" to="187103791"/>
    <trip id="veh135" type="veh_passenger" depart="314.48" departLane="best" from="-4613300#6" to="23386522#7"/>
    <trip id="veh136" type="veh_passenger" depart="316.81" departLane="best" from="312654706#3" to="36689633#2"/>
    <trip id="veh138" type="veh_passenger" depart="321.47" departLane="best" from="-4611714#6" to="1305423286#1"/>
    <trip id="veh139" type="veh_passenger" depart="323.80" departLane="best" from="1133457733" to="4615500#4"/>
    <trip id="veh140" type="veh_passenger" depart="326.12" departLane="best" from="-25258502#1" to="-4612970#0"/>
    <trip id="veh141" type="veh_passenger" depart="328.45" departLane="best" from="328426208#2" to="177372522"/>
    <trip id="veh142" type="veh_passenger" depart="330.78" departLane="best" from="1133761786" to="-1076055688#0"/>
    <trip id="veh143" type="veh_passenger" depart="333.11" departLane="best" from="-1159149106#0" to="4615500#6"/>
    <trip id="veh144" type="veh_passenger" depart="335.44" departLane="best" from="4840859#0" to="-176043804#0"/>
    <trip id="veh145" type="veh_passenger" depart="337.77" departLane="best" from="4610476#5" to="-197160273#3"/>
    <trip id="veh146" type="veh_passenger" depart="340.10" departLane="best" from="-23294727#2" to="1224613249"/>
    <trip id="veh147" type="veh_passenger" depart="342.43" departLane="best" from="4383283#0" to="4612973#0"/>
    <trip id="veh148" type="veh_passenger" depart="344.76" departLane="best" from="4790801" to="1134771199#1"/>
    <trip id="veh149" type="veh_passenger" depart="347.09" departLane="best" departSpeed="max" from="4610524#1" to="-156364570#4"/>
    <trip id="veh150" type="veh_passenger" depart="349.42" departLane="best" from="42103020#2" to="4615500#6"/>
    <trip id="veh151" type="veh_passenger" depart="351.75" departLane="best" from="112128419#1" to="24241790#4"/>
    <trip id="veh152" type="veh_passenger" depart="354.08" departLane="best" departSpeed="max" from="-23813206" to="-6227658#3"/>
    <trip id="veh153" type="veh_passenger" depart="356.41" departLane="best" from="4612974#1" to="82654059#0"/>
    <trip id="veh154" type="veh_passenger" depart="358.74" departLane="best" from="454285423#5" to="-4615498#3"/>
    <trip id="veh155" type="veh_passenger" depart="361.07" departLane="best" from="-1101961674#2" to="-320462164#3"/>
    <trip id="veh156" type="veh_passenger" depart="363.40" departLane="best" from="100405009#4" to="625843709"/>
    <trip id="veh157" type="veh_passenger" depart="365.73" departLane="best" from="-441788215" to="1098856714#1"/>
    <trip id="veh158" type="veh_passenger" depart="368.06" departLane="best" from="454285423#5" to="4613299#3"/>
    <trip id="veh159" type="veh_passenger" depart="370.38" departLane="best" from="43231842#2" to="-168940071#5"/>
    <trip id="veh161" type="veh_passenger" depart="375.04" departLane="best" from="437325055#1" to="458953719#0"/>
    <trip id="veh162" type="veh_passenger" depart="377.37" departLane="best" from="1159156576#1" to="-755340907#0"/>
    <trip id="veh164" type="veh_passenger" depart="382.03" departLane="best" from="-1100903096#0" to="326116285#4"/>
    <trip id="veh165" type="veh_passenger" depart="384.36" departLane="best" from="-930343901#3" to="4613287#1"/>
    <trip id="veh166" type="veh_passenger" depart="386.69" departLane="best" from="267542610#1" to="1120993114#2"/>
    <trip id="veh167" type="veh_passenger" depart="389.02" departLane="best" from="82659290" to="169719829#0"/>
    <trip id="veh168" type="veh_passenger" depart="391.35" departLane="best" from="68647306#5" to="-171484594#1"/>
    <trip id="veh170" type="veh_passenger" depart="396.01" departLane="best" from="755340907#1" to="-4613296#0"/>
    <trip id="veh171" type="veh_passenger" depart="398.34" departLane="best" from="-168935756#1" to="1136657263#0"/>
    <trip id="veh174" type="veh_passenger" depart="405.33" departLane="best" from="318282850#2" to="22972195#2"/>
    <trip id="veh175" type="veh_passenger" depart="407.66" departLane="best" from="4611710#0" to="31112516#5"/>
    <trip id="veh176" type="veh_passenger" depart="409.99" departLane="best" from="-1020977670#3" to="606078065"/>
    <trip id="veh177" type="veh_passenger" depart="412.32" departLane="best" from="-176043807#10" to="312651887#0"/>
    <trip id="veh178" type="veh_passenger" depart="414.64" departLane="best" from="328426208#2" to="291270698#3"/>
    <trip id="veh179" type="veh_passenger" depart="416.97" departLane="best" from="-1100903094#3" to="-1157444126#1"/>
    <trip id="veh181" type="veh_passenger" depart="421.63" departLane="best" departSpeed="max" from="-73310501#1" to="4611718#0"/>
    <trip id="veh183" type="veh_passenger" depart="426.29" departLane="best" from="-710761407#1" to="1125871619#1"/>
    <trip id="veh184" type="veh_passenger" depart="428.62" departLane="best" from="1119938072#1" to="66071366#4"/>
    <trip id="veh185" type="veh_passenger" depart="430.95" departLane="best" from="-19002363#0" to="1133761627#1"/>
    <trip id="veh186" type="veh_passenger" depart="433.28" departLane="best" from="-694626562" to="29290632#1"/>
    <trip id="veh187" type="veh_passenger" depart="435.61" departLane="best" from="47935842" to="23851930"/>
    <trip id="veh188" type="veh_passenger" depart="437.94" departLane="best" from="-1009114665#0" to="51167934#5"/>
    <trip id="veh189" type="veh_passenger" depart="440.27" departLane="best" from="1133761819#0" to="196850607#0"/>
    <trip id="veh190" type="veh_passenger" depart="442.60" departLane="best" from="287764737#4" to="1164203952#1"/>
    <trip id="veh191" type="veh_passenger" depart="444.93" departLane="best" from="1151064386#0" to="-43087099#2"/>
    <trip id="veh192" type="veh_passenger" depart="447.26" departLane="best" from="1212138995#5" to="4790839#1"/>
    <trip id="veh193" type="veh_passenger" depart="449.59" departLane="best" from="-437325056#1" to="268002743#0"/>
    <trip id="veh194" type="veh_passenger" depart="451.92" departLane="best" from="1216575599#1" to="155186522#1"/>
    <trip id="veh195" type="veh_passenger" depart="454.25" departLane="best" from="-24993933#2" to="102983787"/>
    <trip id="veh198" type="veh_passenger" depart="461.23" departLane="best" from="-335462916" to="1100903096#0"/>
    <trip id="veh199" type="veh_passenger" depart="463.56" departLane="best" from="4597325#7" to="1175552853#2"/>
    <trip id="veh200" type="veh_passenger" depart="465.89" departLane="best" from="4611724" to="-1159149106#0"/>
    <trip id="veh201" type="veh_passenger" depart="468.22" departLane="best" from="1126237668#1" to="246044844#1"/>
    <trip id="veh202" type="veh_passenger" depart="470.55" departLane="best" from="-32805741#2" to="305093247#0"/>
    <trip id="veh203" type="veh_passenger" depart="472.88" departLane="best" from="147066248#4" to="4610524#0"/>
    <trip id="veh204" type="veh_passenger" depart="475.21" departLane="best" from="288354369" to="-1040930907#3"/>
    <trip id="veh205" type="veh_passenger" depart="477.54" departLane="best" from="339201250#1" to="369223459#0"/>
    <trip id="veh206" type="veh_passenger" depart="479.87" departLane="best" from="-15973619#6" to="1133761791#1"/>
    <trip id="veh207" type="veh_passenger" depart="482.20" departLane="best" from="-292429062#1" to="749876418#0"/>
    <trip id="veh208" type="veh_passenger" depart="484.53" departLane="best" from="168940071#1" to="-1126465845"/>
    <trip id="veh209" type="veh_passenger" depart="486.86" departLane="best" departSpeed="max" from="4610524#1" to="4611718#1"/>
    <trip id="veh210" type="veh_passenger" depart="489.19" departLane="best" from="1157396753" to="4402037#1"/>
    <trip id="veh212" type="veh_passenger" depart="493.85" departLane="best" from="233835641#2" to="717177007#4"/>
    <trip id="veh215" type="veh_passenger" depart="500.83" departLane="best" from="4610355#19" to="176043807#14"/>
    <trip id="veh216" type="veh_passenger" depart="503.16" departLane="best" from="202157002#2" to="328426208#0"/>
    <trip id="veh217" type="veh_passenger" depart="505.49" departLane="best" from="1218225317#3" to="-4612966#0"/>
    <trip id="veh218" type="veh_passenger" depart="507.82" departLane="best" from="-4610374#1" to="24992424#3"/>
    <trip id="veh219" type="veh_passenger" depart="510.15" departLane="best" from="369223458#2" to="-15977422#1"/>
    <trip id="veh220" type="veh_passenger" depart="512.48" departLane="best" from="202156994#0" to="-4615498#0"/>
    <trip id="veh221" type="veh_passenger" depart="514.81" departLane="best" from="1165451560#2" to="51167934#1"/>
    <trip id="veh222" type="veh_passenger" depart="517.14" departLane="best" from="-4613300#4" to="100405009#3"/>
    <trip id="veh224" type="veh_passenger" depart="521.80" departLane="best" from="-454285423#2" to="304627753#0"/>
    <trip id="veh225" type="veh_passenger" depart="524.13" departLane="best" from="312533961#0" to="-1152640372#1"/>
    <trip id="veh226" type="veh_passenger" depart="526.46" departLane="best" from="112128419#2" to="173197451#4"/>
    <trip id="veh227" type="veh_passenger" depart="528.79" departLane="best" from="1126244314#1" to="-37289106"/>
    <trip id="veh231" type="veh_passenger" depart="538.11" departLane="best" from="1103591568#1" to="-1040930907#4"/>
    <trip id="veh232" type="veh_passenger" depart="540.44" departLane="best" from="1083226619" to="335462921#1"/>
    <trip id="veh233" type="veh_passenger" depart="542.76" departLane="best" from="4612427#0" to="73310501#1"/>
    <trip id="veh234" type="veh_passenger" depart="545.09" departLane="best" from="1127602336" to="328426256#2"/>
    <trip id="veh235" type="veh_passenger" depart="547.42" departLane="best" from="437325047#1" to="437325050#1"/>
    <trip id="veh236" type="veh_passenger" depart="549.75" departLane="best" from="1136657263#1" to="1102154080#1"/>
    <trip id="veh237" type="veh_passenger" depart="552.08" departLane="best" from="1024034687#1" to="295445243"/>
    <trip id="veh238" type="veh_passenger" depart="554.41" departLane="best" from="1121011269#0" to="24992424#3"/>
    <trip id="veh239" type="veh_passenger" depart="556.74" departLane="best" from="1187368476#0" to="1224613249"/>
    <trip id="veh240" type="veh_passenger" depart="559.07" departLane="best" from="246044841#1" to="-1102153967#1"/>
    <trip id="veh241" type="veh_passenger" depart="561.40" departLane="best" from="1113726463" to="190447766#1"/>
    <trip id="veh242" type="veh_passenger" depart="563.73" departLane="best" from="-1102154067" to="251884680#1"/>
    <trip id="veh243" type="veh_passenger" depart="566.06" departLane="best" from="195430954#0" to="1158892054#2"/>
    <trip id="veh244" type="veh_passenger" depart="568.39" departLane="best" from="-1127602336" to="1105526087"/>
    <trip id="veh245" type="veh_passenger" depart="570.72" departLane="best" from="370359204#3" to="1025851953"/>
    <trip id="veh246" type="veh_passenger" depart="573.05" departLane="best" from="35578576#3" to="1105526087"/>
    <trip id="veh247" type="veh_passenger" depart="575.38" departLane="best" from="340498976#4" to="4610355#7"/>
    <trip id="veh248" type="veh_passenger" depart="577.71" departLane="best" from="-4611693#3" to="1198409426#2"/>
    <trip id="veh249" type="veh_passenger" depart="580.04" departLane="best" from="-1100824590#0" to="171423001#2"/>
    <trip id="veh250" type="veh_passenger" depart="582.37" departLane="best" from="98399537" to="-1090433701#4"/>
    <trip id="veh251" type="veh_passenger" depart="584.70" departLane="best" departSpeed="max" from="287420296#0" to="-39350082#4"/>
    <trip id="veh252" type="veh_passenger" depart="587.02" departLane="best" departSpeed="max" from="287420296#0" to="339201177#0"/>
    <trip id="veh253" type="veh_passenger" depart="589.35" departLane="best" from="713576590#4" to="-339201177#3"/>
    <trip id="veh254" type="veh_passenger" depart="591.68" departLane="best" from="-1100903087#0" to="23386522#1"/>
    <trip id="veh256" type="veh_passenger" depart="596.34" departLane="best" from="195397541#2" to="-437325047#0"/>
    <trip id="veh258" type="veh_passenger" depart="601.00" departLane="best" from="-267542609#4" to="236092221#0"/>
    <trip id="veh259" type="veh_passenger" depart="603.33" departLane="best" from="339201177#1" to="169719829#1"/>
    <trip id="veh260" type="veh_passenger" depart="605.66" departLane="best" from="4592739#0" to="7917219#1"/>
    <trip id="veh261" type="veh_passenger" depart="607.99" departLane="best" from="165450001#2" to="1101961674#3"/>
    <trip id="veh262" type="veh_passenger" depart="610.32" departLane="best" from="717177007#6" to="29290632#1"/>
    <trip id="veh263" type="veh_passenger" depart="612.65" departLane="best" from="749876417" to="1119935543#0"/>
    <trip id="veh264" type="veh_passenger" depart="614.98" departLane="best" departSpeed="max" from="312654705#2" to="-1173516144#0"/>
    <trip id="veh265" type="veh_passenger" depart="617.31" departLane="best" from="30705211#1" to="246044841#0"/>
    <trip id="veh266" type="veh_passenger" depart="619.64" departLane="best" from="153692984#1" to="370617120#0"/>
    <trip id="veh267" type="veh_passenger" depart="621.97" departLane="best" from="4611724" to="23294704#1"/>
    <trip id="veh268" type="veh_passenger" depart="624.30" departLane="best" from="-176043806#2" to="-831860725#1"/>
    <trip id="veh269" type="veh_passenger" depart="626.63" departLane="best" from="4296468#2" to="-1079386660"/>
    <trip id="veh270" type="veh_passenger" depart="628.96" departLane="best" from="1133761786" to="1102163308#1"/>
    <trip id="veh272" type="veh_passenger" depart="633.61" departLane="best" from="4611724" to="4597324#7"/>
    <trip id="veh273" type="veh_passenger" depart="635.94" departLane="best" from="-15973619#2" to="753730627#1"/>
    <trip id="veh274" type="veh_passenger" depart="638.27" departLane="best" from="25086768" to="4610354#4"/>
    <trip id="veh275" type="veh_passenger" depart="640.60" departLane="best" from="312533962#1" to="1138687769"/>